5R83_h
  PyMOL2.3          3D                             0

 11 11  0  0  0  0  0  0  0  0999 V2000
    6.5550    0.6850   17.6400 N   0  0  0  0  0  0  0  0  0  0  0  0
    6.6490    0.0270   19.8680 C   0  0  0  0  0  0  0  0  0  0  0  0
    5.4450    0.6520   20.1520 C   0  0  0  0  0  0  0  0  0  0  0  0
    4.8150    1.3120   19.1090 C   0  0  0  0  0  0  0  0  0  0  0  0
    5.4060    1.2810   17.8510 C   0  0  0  0  0  0  0  0  0  0  0  0
    7.1890    0.0560   18.5940 C   0  0  0  0  0  0  0  0  0  0  0  0
    7.1803   -0.4970   20.6625 H   0  0  0  0  0  0  0  0  0  0  0  0
    5.0120    0.6260   21.1520 H   0  0  0  0  0  0  0  0  0  0  0  0
    3.8770    1.8430   19.2710 H   0  0  0  0  0  0  0  0  0  0  0  0
    4.9000    1.7660   17.0160 H   0  0  0  0  0  0  0  0  0  0  0  0
    8.1360   -0.4420   18.3880 H   0  0  0  0  0  0  0  0  0  0  0  0
  1  5  4  0  0  0  0
  1  6  4  0  0  0  0
  2  3  4  0  0  0  0
  2  6  4  0  0  0  0
  2  7  1  0  0  0  0
  3  4  4  0  0  0  0
  3  8  1  0  0  0  0
  4  5  4  0  0  0  0
  4  9  1  0  0  0  0
  5 10  1  0  0  0  0
  6 11  1  0  0  0  0
M  END
$$$$
